
OS:Version,
  {89cedb14-66b7-4992-85d8-9692644ded2a}, !- Handle
  3.2.1;                                  !- Version Identifier

OS:Site,
  {5703b617-77ae-4b8a-b4f7-b00c9843234a}, !- Handle
  BRUSSELS,                               !- Name
  50.9,                                   !- Latitude {deg}
  4.53,                                   !- Longitude {deg}
  1,                                      !- Time Zone {hr}
  58,                                     !- Elevation {m}
  City;                                   !- Terrain

OS:SimulationControl,
  {ef9fc2cf-5cba-4722-8712-9d97a64434b5}, !- Handle
  Yes,                                    !- Do Zone Sizing Calculation
  Yes,                                    !- Do System Sizing Calculation
  Yes,                                    !- Do Plant Sizing Calculation
  No,                                     !- Run Simulation for Sizing Periods
  Yes,                                    !- Run Simulation for Weather File Run Periods
  0.04,                                   !- Loads Convergence Tolerance Value {W}
  0.2,                                    !- Temperature Convergence Tolerance Value {deltaC}
  FullInteriorAndExterior,                !- Solar Distribution
  25,                                     !- Maximum Number of Warmup Days
  6,                                      !- Minimum Number of Warmup Days
  Yes,                                    !- Do HVAC Sizing Simulation for Sizing Periods
  1;                                      !- Maximum Number of HVAC Sizing Simulation Passes

OS:Building,
  {03dbb909-76a9-4aa9-9ed3-fd683271b003}, !- Handle
  Office,                                 !- Name
  ,                                       !- Building Sector Type
  0,                                      !- North Axis {deg}
  3.7,                                    !- Nominal Floor to Floor Height {m}
  {dafe595e-48d9-42d8-a864-9c7532ac6f7b}, !- Space Type Name
  {a85de593-e7e5-49df-99dd-b387e8ee12b2}, !- Default Construction Set Name
  {a21ef599-7de5-49a1-bada-40357321b2a0}, !- Default Schedule Set Name
  10,                                     !- Standards Number of Stories
  9,                                      !- Standards Number of Above Ground Stories
  ,                                       !- Standards Template
  Office,                                 !- Standards Building Type
  ,                                       !- Standards Number of Living Units
  ,                                       !- Relocatable
  3;                                      !- Nominal Floor to Ceiling Height {m}

OS:Timestep,
  {16a2dda0-aa3c-4aa0-b994-461dd5239a26}, !- Handle
  4;                                      !- Number of Timesteps per Hour

OS:ConvergenceLimits,
  {be201e1b-d891-45ef-8c76-cfdfc3a7c040}, !- Handle
  1,                                      !- Minimum System Timestep {minutes}
  20;                                     !- Maximum HVAC Iterations

OS:HeatBalanceAlgorithm,
  {a826a4cc-8b13-46a3-b3a1-0477d2524084}, !- Handle
  ConductionTransferFunction,             !- Algorithm
  200;                                    !- Surface Temperature Upper Limit {C}

OS:ShadowCalculation,
  {971f1c5b-e313-44c6-87ce-dc332c9c9d1e}, !- Handle
  PolygonClipping,                        !- Shading Calculation Method
  ,                                       !- Shading Calculation Update Frequency Method
  20,                                     !- Shading Calculation Update Frequency
  15000,                                  !- Maximum Figures in Shadow Overlap Calculations
  ,                                       !- Polygon Clipping Algorithm
  512,                                    !- Pixel Counting Resolution
  ,                                       !- Sky Diffuse Modeling Algorithm
  No,                                     !- Output External Shading Calculation Results
  No,                                     !- Disable Self-Shading Within Shading Zone Groups
  No;                                     !- Disable Self-Shading From Shading Zone Groups to Other Zones

OS:ThermalZone,
  {ccf97eb9-328f-4c12-a212-5460bc31a46a}, !- Handle
  top_Offices_W_TZ,                       !- Name
  1,                                      !- Multiplier
  ,                                       !- Ceiling Height {m}
  ,                                       !- Volume {m3}
  ,                                       !- Floor Area {m2}
  ,                                       !- Zone Inside Convection Algorithm
  ,                                       !- Zone Outside Convection Algorithm
  ,                                       !- Zone Conditioning Equipment List Name
  {d061ef5a-4a35-4bfd-aa32-5ca9329bc33f}, !- Zone Air Inlet Port List
  {594e5564-29b8-4d10-baa4-8b33dcfc6d37}, !- Zone Air Exhaust Port List
  {a1cb3ff4-e3ff-45ce-a72c-466cf5b8a445}, !- Zone Air Node Name
  {3ff59ab9-ff6c-4894-bae1-58c3cc2f4229}, !- Zone Return Air Port List
  ,                                       !- Primary Daylighting Control Name
  1,                                      !- Fraction of Zone Controlled by Primary Daylighting Control
  ,                                       !- Secondary Daylighting Control Name
  ,                                       !- Fraction of Zone Controlled by Secondary Daylighting Control
  ,                                       !- Illuminance Map Name
  {76182c03-5451-410c-a410-6c91a3a26e90}, !- Group Rendering Name
  {87fc65eb-96e8-4f34-a04a-cd35b7af37b6}, !- Thermostat Name
  No,                                     !- Use Ideal Air Loads
  {2581134d-9183-4b68-a8fb-26b37054dea9}; !- Humidistat Name

OS:Node,
  {3f61529f-5311-4ae5-8c60-97923acb5c55}, !- Handle
  top_Offices_W_TZ Zone Air Node,         !- Name
  {a1cb3ff4-e3ff-45ce-a72c-466cf5b8a445}, !- Inlet Port
  ;                                       !- Outlet Port

OS:Connection,
  {a1cb3ff4-e3ff-45ce-a72c-466cf5b8a445}, !- Handle
  {ccf97eb9-328f-4c12-a212-5460bc31a46a}, !- Source Object
  11,                                     !- Outlet Port
  {3f61529f-5311-4ae5-8c60-97923acb5c55}, !- Target Object
  2;                                      !- Inlet Port

OS:PortList,
  {d061ef5a-4a35-4bfd-aa32-5ca9329bc33f}, !- Handle
  {ccf97eb9-328f-4c12-a212-5460bc31a46a}, !- HVAC Component
  {37b9d832-02ed-40d6-a19c-7c936f02b337}, !- Port 1
  {cc41461e-b72d-4158-81b2-4bbec97b7bcb}; !- Port 2

OS:PortList,
  {594e5564-29b8-4d10-baa4-8b33dcfc6d37}, !- Handle
  {ccf97eb9-328f-4c12-a212-5460bc31a46a}, !- HVAC Component
  {390014cf-f253-463b-9903-e2ede5fd3eaa}; !- Port 1

OS:PortList,
  {3ff59ab9-ff6c-4894-bae1-58c3cc2f4229}, !- Handle
  {ccf97eb9-328f-4c12-a212-5460bc31a46a}, !- HVAC Component
  {f85c9a06-6868-489c-80ee-da5b0b6aea17}; !- Port 1

OS:Sizing:Zone,
  {69c7aa8c-4271-4bb4-a561-81d48eebbedd}, !- Handle
  {ccf97eb9-328f-4c12-a212-5460bc31a46a}, !- Zone or ZoneList Name
  SupplyAirTemperature,                   !- Zone Cooling Design Supply Air Temperature Input Method
  12.7777777777778,                       !- Zone Cooling Design Supply Air Temperature {C}
  10,                                     !- Zone Cooling Design Supply Air Temperature Difference {deltaC}
  SupplyAirTemperature,                   !- Zone Heating Design Supply Air Temperature Input Method
  40.0000000000001,                       !- Zone Heating Design Supply Air Temperature {C}
  10,                                     !- Zone Heating Design Supply Air Temperature Difference {deltaC}
  0.0085,                                 !- Zone Cooling Design Supply Air Humidity Ratio {kg-H2O/kg-air}
  0.008,                                  !- Zone Heating Design Supply Air Humidity Ratio {kg-H2O/kg-air}
  ,                                       !- Zone Heating Sizing Factor
  ,                                       !- Zone Cooling Sizing Factor
  DesignDayWithLimit,                     !- Cooling Design Air Flow Method
  0,                                      !- Cooling Design Air Flow Rate {m3/s}
  ,                                       !- Cooling Minimum Air Flow per Zone Floor Area {m3/s-m2}
  0,                                      !- Cooling Minimum Air Flow {m3/s}
  0,                                      !- Cooling Minimum Air Flow Fraction
  DesignDay,                              !- Heating Design Air Flow Method
  0,                                      !- Heating Design Air Flow Rate {m3/s}
  0.002,                                  !- Heating Maximum Air Flow per Zone Floor Area {m3/s-m2}
  0.142,                                  !- Heating Maximum Air Flow {m3/s}
  ,                                       !- Heating Maximum Air Flow Fraction
  Yes,                                    !- Account for Dedicated Outdoor Air System
  NeutralSupplyAir,                       !- Dedicated Outdoor Air System Control Strategy
  15.5555555555556,                       !- Dedicated Outdoor Air Low Setpoint Temperature for Design {C}
  21.1111111111111,                       !- Dedicated Outdoor Air High Setpoint Temperature for Design {C}
  1,                                      !- Design Zone Air Distribution Effectiveness in Cooling Mode
  1,                                      !- Design Zone Air Distribution Effectiveness in Heating Mode
  ,                                       !- Design Zone Secondary Recirculation Fraction {dimensionless}
  0.6;                                    !- Design Minimum Zone Ventilation Efficiency {dimensionless}

OS:ZoneHVAC:EquipmentList,
  {71c47201-25ba-4ee7-9cef-e03ca31750a0}, !- Handle
  top_Offices_W_TZ Zone HVAC Equipment List, !- Name
  {ccf97eb9-328f-4c12-a212-5460bc31a46a}, !- Thermal Zone
  ,                                       !- Load Distribution Scheme
  {3b14cc3f-18b2-4d6e-9f1c-e3ffd95a5b43}, !- Zone Equipment 1
  1,                                      !- Zone Equipment Cooling Sequence 1
  1,                                      !- Zone Equipment Heating or No-Load Sequence 1
  {7b72f34a-7c9a-460c-af76-38aa2c1ecb6e}, !- Zone Equipment Sequential Cooling Fraction Schedule Name 1
  {70332e68-3478-4557-a686-7911c846c8e2}, !- Zone Equipment Sequential Heating Fraction Schedule Name 1
  {c9fb4afc-1c26-416f-8329-14d4beaadbaf}, !- Zone Equipment 2
  2,                                      !- Zone Equipment Cooling Sequence 2
  2,                                      !- Zone Equipment Heating or No-Load Sequence 2
  ,                                       !- Zone Equipment Sequential Cooling Fraction Schedule Name 2
  ;                                       !- Zone Equipment Sequential Heating Fraction Schedule Name 2

OS:ThermostatSetpoint:DualSetpoint,
  {87fc65eb-96e8-4f34-a04a-cd35b7af37b6}, !- Handle
  Perimeter_mid_ZN_4 DualSPSched,         !- Name
  {8de69375-5b8f-4024-94c8-2a67d3fe3625}, !- Heating Setpoint Temperature Schedule Name
  {43ef7c0f-1787-44f0-94d1-5b50d9bb32c1}; !- Cooling Setpoint Temperature Schedule Name

OS:Schedule:Compact,
  {cb1f0ab7-2e0e-44a5-8289-f9678fc54314}, !- Handle
  HTGSETP_SCH_YES_OPTIMUM,                !- Name
  {cf7863ef-58ca-44e7-9b73-c36584291dd5}, !- Schedule Type Limits Name
  Through: 12/31,                         !- Field 1
  For: WinterDesignDay,                   !- Field 2
  Until: 05:00,                           !- Field 3
  15.6,                                   !- Field 4
  Until: 06:00,                           !- Field 5
  17.6,                                   !- Field 6
  Until: 07:00,                           !- Field 7
  19.6,                                   !- Field 8
  Until: 22:00,                           !- Field 9
  21.0,                                   !- Field 10
  Until: 24:00,                           !- Field 11
  15.6,                                   !- Field 12
  For: Weekdays,                          !- Field 13
  Until: 04:00,                           !- Field 14
  15.6,                                   !- Field 15
  Until: 05:00,                           !- Field 16
  17.8,                                   !- Field 17
  Until: 06:00,                           !- Field 18
  20.0,                                   !- Field 19
  Until: 22:00,                           !- Field 20
  21.0,                                   !- Field 21
  Until: 24:00,                           !- Field 22
  15.6,                                   !- Field 23
  For SummerDesignDay,                    !- Field 24
  Until: 24:00,                           !- Field 25
  15.6,                                   !- Field 26
  For: Saturday,                          !- Field 27
  Until: 04:00,                           !- Field 28
  15.6,                                   !- Field 29
  Until: 05:00,                           !- Field 30
  17.8,                                   !- Field 31
  Until: 06:00,                           !- Field 32
  20.0,                                   !- Field 33
  Until: 17:00,                           !- Field 34
  21.0,                                   !- Field 35
  Until: 24:00,                           !- Field 36
  15.6,                                   !- Field 37
  For: Sunday Holidays AllOtherDays,      !- Field 38
  Until: 24:00,                           !- Field 39
  15.6;                                   !- Field 40

OS:ScheduleTypeLimits,
  {cf7863ef-58ca-44e7-9b73-c36584291dd5}, !- Handle
  Temperature,                            !- Name
  ,                                       !- Lower Limit Value
  ,                                       !- Upper Limit Value
  Continuous,                             !- Numeric Type
  Temperature;                            !- Unit Type

OS:Schedule:Compact,
  {d311e656-1730-436c-98e5-fc220cd32a98}, !- Handle
  CLGSETP_SCH_YES_OPTIMUM,                !- Name
  {cf7863ef-58ca-44e7-9b73-c36584291dd5}, !- Schedule Type Limits Name
  Through: 12/31,                         !- Field 1
  For: SummerDesignDay,                   !- Field 2
  Until: 05:00,                           !- Field 3
  26.7,                                   !- Field 4
  Until: 06:00,                           !- Field 5
  25.7,                                   !- Field 6
  Until: 07:00,                           !- Field 7
  25.0,                                   !- Field 8
  Until: 22:00,                           !- Field 9
  24.0,                                   !- Field 10
  Until: 24:00,                           !- Field 11
  26.7,                                   !- Field 12
  For: Weekdays,                          !- Field 13
  Until: 04:00,                           !- Field 14
  26.7,                                   !- Field 15
  Until: 05:00,                           !- Field 16
  25.6,                                   !- Field 17
  Until: 06:00,                           !- Field 18
  25.0,                                   !- Field 19
  Until: 22:00,                           !- Field 20
  24.0,                                   !- Field 21
  Until: 24:00,                           !- Field 22
  26.7,                                   !- Field 23
  For: Saturday,                          !- Field 24
  Until: 04:00,                           !- Field 25
  26.7,                                   !- Field 26
  Until: 05:00,                           !- Field 27
  25.6,                                   !- Field 28
  Until: 06:00,                           !- Field 29
  25.0,                                   !- Field 30
  Until: 17:00,                           !- Field 31
  24.0,                                   !- Field 32
  Until: 24:00,                           !- Field 33
  26.7,                                   !- Field 34
  For WinterDesignDay,                    !- Field 35
  Until: 24:00,                           !- Field 36
  26.7,                                   !- Field 37
  For: Sunday Holidays AllOtherDays,      !- Field 38
  Until: 24:00,                           !- Field 39
  26.7;                                   !- Field 40

OS:RunPeriod,
  {c93e5d45-9b8c-4fbc-886e-b2b7d537e757}, !- Handle
  Run Period 1,                           !- Name
  1,                                      !- Begin Month
  1,                                      !- Begin Day of Month
  12,                                     !- End Month
  31,                                     !- End Day of Month
  Yes,                                    !- Use Weather File Holidays and Special Days
  Yes,                                    !- Use Weather File Daylight Saving Period
  Yes,                                    !- Apply Weekend Holiday Rule
  Yes,                                    !- Use Weather File Rain Indicators
  Yes,                                    !- Use Weather File Snow Indicators
  ;                                       !- Number of Times Runperiod to be Repeated

OS:YearDescription,
  {6d249858-4802-4e08-8ae7-223dae2000f3}, !- Handle
  ,                                       !- Calendar Year
  Sunday;                                 !- Day of Week for Start Day

OS:RunPeriodControl:DaylightSavingTime,
  {1eaec6cb-5c41-4733-bc2e-3b9bf076e532}, !- Handle
  Last Sunday in March,                   !- Start Date
  Last Sunday in October;                 !- End Date

OS:Material,
  {162a0f1e-322f-4d8c-b0da-0834448584ef}, !- Handle
  Std Wood,                               !- Name
  MediumSmooth,                           !- Roughness
  0.15,                                   !- Thickness {m}
  0.12,                                   !- Conductivity {W/m-K}
  540,                                    !- Density {kg/m3}
  1210,                                   !- Specific Heat {J/kg-K}
  0.9,                                    !- Thermal Absorptance
  0.7,                                    !- Solar Absorptance
  0.7;                                    !- Visible Absorptance

OS:Material,
  {fa8e2347-eaea-417d-bd91-78896b699e3f}, !- Handle
  F13 Built-up roofing,                   !- Name
  Rough,                                  !- Roughness
  0.0095,                                 !- Thickness {m}
  0.16,                                   !- Conductivity {W/m-K}
  1120,                                   !- Density {kg/m3}
  1460,                                   !- Specific Heat {J/kg-K}
  0.9,                                    !- Thermal Absorptance
  0.7;                                    !- Solar Absorptance

OS:Material,
  {4d13a52d-ee02-4340-8e40-76488d593c7f}, !- Handle
  Gypsum_13mm,                            !- Name
  Smooth,                                 !- Roughness
  0.0127,                                 !- Thickness {m}
  0.16,                                   !- Conductivity {W/m-K}
  800,                                    !- Density {kg/m3}
  1090,                                   !- Specific Heat {J/kg-K}
  0.9,                                    !- Thermal Absorptance
  0.7,                                    !- Solar Absorptance
  0.5;                                    !- Visible Absorptance

OS:Material:NoMass,
  {0d8cf323-3065-4800-9826-8958907ca9a0}, !- Handle
  Carpet pad,                             !- Name
  VeryRough,                              !- Roughness
  0.22,                                   !- Thermal Resistance {m2-K/W}
  0.9,                                    !- Thermal Absorptance
  0.7,                                    !- Solar Absorptance
  0.8;                                    !- Visible Absorptance

OS:Material:NoMass,
  {61168362-a358-460f-802a-22081a0c2201}, !- Handle
  Air_Wall_Material,                      !- Name
  Rough,                                  !- Roughness
  0.2079491,                              !- Thermal Resistance {m2-K/W}
  0.9,                                    !- Thermal Absorptance
  0.7;                                    !- Solar Absorptance

OS:Material:NoMass,
  {78c14a26-e422-48f1-8ad1-5d7459b6b9b8}, !- Handle
  Roof_Insulation,                        !- Name
  MediumSmooth,                           !- Roughness
  5.31,                                   !- Thermal Resistance {m2-K/W}
  0.9,                                    !- Thermal Absorptance
  0.7,                                    !- Solar Absorptance
  0.7;                                    !- Visible Absorptance

OS:Material:NoMass,
  {9cfa2f03-bc5e-4062-a44d-7435ac60743f}, !- Handle
  Ext_Wall_Insulation_nonres,             !- Name
  MediumSmooth,                           !- Roughness
  1.63974590315506,                       !- Thermal Resistance {m2-K/W}
  0.9,                                    !- Thermal Absorptance
  0.7,                                    !- Solar Absorptance
  0.7;                                    !- Visible Absorptance

OS:Construction,
  {ca1ef777-402f-4f2a-905f-f10bede15b80}, !- Handle
  _WoodFurnitures,                        !- Name
  {99208fa7-8280-4305-bf9f-357173d8023d}, !- Surface Rendering Name
  {162a0f1e-322f-4d8c-b0da-0834448584ef}; !- Layer 1

OS:Construction,
  {b6c36d6c-0d3c-45e1-821b-5bed9250a4e4}, !- Handle
  _DropCeiling,                           !- Name
  {a92a5b3c-e99a-4182-99ad-a104c89ecd5f}, !- Surface Rendering Name
  {c7f8d429-2898-4c19-b409-e92a9d69c208}; !- Layer 1

OS:Construction,
  {f8eaaf95-9544-4a58-8264-14b473d766e6}, !- Handle
  _ConcreteSlab_200mm,                    !- Name
  {e12858e4-c360-4e21-a5c0-29893687ec4f}, !- Surface Rendering Name
  {ef6ea240-5a96-46fa-8288-e5c33b8d6d83}; !- Layer 1

OS:Construction,
  {74aaafe2-7ee6-467a-b0f5-88296fb230dd}, !- Handle
  _Concrete_300mm,                        !- Name
  {cc185e2a-1444-4b8b-94ad-1e63ff41b5b7}, !- Surface Rendering Name
  {c23ae5c7-58c6-4c53-9a9b-0b40ea522aa9}; !- Layer 1

OS:Construction,
  {7a5e6fa8-683f-455a-95e1-d9ac6f438fb7}, !- Handle
  _Roof,                                  !- Name
  {abeb9cd3-ed87-47bc-a98a-b43358b93b2f}, !- Surface Rendering Name
  {fa8e2347-eaea-417d-bd91-78896b699e3f}, !- Layer 1
  {78c14a26-e422-48f1-8ad1-5d7459b6b9b8}, !- Layer 2
  {ef6ea240-5a96-46fa-8288-e5c33b8d6d83}; !- Layer 3

OS:Schedule:Compact,
  {746b5eb5-5079-44c6-a561-6f40921c6a8c}, !- Handle
  EXTERIOR_LIGHT_SCH,                     !- Name
  {e11af6d6-46a7-4644-a42a-710cb12303ab}, !- Schedule Type Limits Name
  Through: 12/31,                         !- Field 1
  For: AllDays,                           !- Field 2
  Until: 07:00,                           !- Field 3
  1.0,                                    !- Field 4
  Until: 19:00,                           !- Field 5
  0.0,                                    !- Field 6
  Until: 24:00,                           !- Field 7
  1.0;                                    !- Field 8

OS:ScheduleTypeLimits,
  {e11af6d6-46a7-4644-a42a-710cb12303ab}, !- Handle
  Fraction,                               !- Name
  0,                                      !- Lower Limit Value
  1,                                      !- Upper Limit Value
  Continuous;                             !- Numeric Type

OS:ThermalZone,
  {e9d8fdc0-4718-4804-8450-0ac3913dc308}, !- Handle
  Basement_TZ,                            !- Name
  1,                                      !- Multiplier
  ,                                       !- Ceiling Height {m}
  ,                                       !- Volume {m3}
  ,                                       !- Floor Area {m2}
  ,                                       !- Zone Inside Convection Algorithm
  ,                                       !- Zone Outside Convection Algorithm
  ,                                       !- Zone Conditioning Equipment List Name
  {d7d3c8bf-dafd-41bd-b0d8-a143bf680a7f}, !- Zone Air Inlet Port List
  {7f2cd809-37ba-4f26-8129-d436fc682737}, !- Zone Air Exhaust Port List
  {d0ea4bdf-0d02-4690-8f9c-cc50b84c7c63}, !- Zone Air Node Name
  {029141f0-4518-41ab-ba29-aaafd362f786}, !- Zone Return Air Port List
  ,                                       !- Primary Daylighting Control Name
  ,                                       !- Fraction of Zone Controlled by Primary Daylighting Control
  ,                                       !- Secondary Daylighting Control Name
  ,                                       !- Fraction of Zone Controlled by Secondary Daylighting Control
  ,                                       !- Illuminance Map Name
  {fe2e5dc3-4ccd-4281-b880-af43701af8d4}, !- Group Rendering Name
  {70b4bc8b-55d1-4091-a3e8-36375d9df608}, !- Thermostat Name
  No,                                     !- Use Ideal Air Loads
  {7304beb9-6d24-4123-9255-dee8841d5cba}; !- Humidistat Name

OS:Node,
  {8f87b281-f3a4-4a09-a08b-2b09eddc13b0}, !- Handle
  Basement_TZ Zone Air Node,              !- Name
  {d0ea4bdf-0d02-4690-8f9c-cc50b84c7c63}, !- Inlet Port
  ;                                       !- Outlet Port

OS:Connection,
  {d0ea4bdf-0d02-4690-8f9c-cc50b84c7c63}, !- Handle
  {e9d8fdc0-4718-4804-8450-0ac3913dc308}, !- Source Object
  11,                                     !- Outlet Port
  {8f87b281-f3a4-4a09-a08b-2b09eddc13b0}, !- Target Object
  2;                                      !- Inlet Port

OS:PortList,
  {d7d3c8bf-dafd-41bd-b0d8-a143bf680a7f}, !- Handle
  {e9d8fdc0-4718-4804-8450-0ac3913dc308}; !- HVAC Component

OS:PortList,
  {7f2cd809-37ba-4f26-8129-d436fc682737}, !- Handle
  {e9d8fdc0-4718-4804-8450-0ac3913dc308}; !- HVAC Component

OS:PortList,
  {029141f0-4518-41ab-ba29-aaafd362f786}, !- Handle
  {e9d8fdc0-4718-4804-8450-0ac3913dc308}; !- HVAC Component

OS:Sizing:Zone,
  {bc1a8655-7c6b-40f4-90ee-7de21e64bfec}, !- Handle
  {e9d8fdc0-4718-4804-8450-0ac3913dc308}, !- Zone or ZoneList Name
  SupplyAirTemperature,                   !- Zone Cooling Design Supply Air Temperature Input Method
  13,                                     !- Zone Cooling Design Supply Air Temperature {C}
  11.11,                                  !- Zone Cooling Design Supply Air Temperature Difference {deltaC}
  SupplyAirTemperature,                   !- Zone Heating Design Supply Air Temperature Input Method
  40,                                     !- Zone Heating Design Supply Air Temperature {C}
  11.11,                                  !- Zone Heating Design Supply Air Temperature Difference {deltaC}
  0.0085,                                 !- Zone Cooling Design Supply Air Humidity Ratio {kg-H2O/kg-air}
  0.008,                                  !- Zone Heating Design Supply Air Humidity Ratio {kg-H2O/kg-air}
  ,                                       !- Zone Heating Sizing Factor
  ,                                       !- Zone Cooling Sizing Factor
  DesignDay,                              !- Cooling Design Air Flow Method
  0,                                      !- Cooling Design Air Flow Rate {m3/s}
  ,                                       !- Cooling Minimum Air Flow per Zone Floor Area {m3/s-m2}
  0,                                      !- Cooling Minimum Air Flow {m3/s}
  0,                                      !- Cooling Minimum Air Flow Fraction
  DesignDay,                              !- Heating Design Air Flow Method
  0,                                      !- Heating Design Air Flow Rate {m3/s}
  ,                                       !- Heating Maximum Air Flow per Zone Floor Area {m3/s-m2}
  ,                                       !- Heating Maximum Air Flow {m3/s}
  ,                                       !- Heating Maximum Air Flow Fraction
  No,                                     !- Account for Dedicated Outdoor Air System
  NeutralSupplyAir,                       !- Dedicated Outdoor Air System Control Strategy
  autosize,                               !- Dedicated Outdoor Air Low Setpoint Temperature for Design {C}
  autosize;                               !- Dedicated Outdoor Air High Setpoint Temperature for Design {C}

OS:ZoneHVAC:EquipmentList,
  {9e3a6bea-80cc-431f-a53b-1b2aafa9fbe6}, !- Handle
  Basement_TZ Zone HVAC Equipment List,   !- Name
  {e9d8fdc0-4718-4804-8450-0ac3913dc308}, !- Thermal Zone
  ;                                       !- Load Distribution Scheme

OS:ThermostatSetpoint:DualSetpoint,
  {70b4bc8b-55d1-4091-a3e8-36375d9df608}, !- Handle
  Basement DualSPSched,                   !- Name
  ,                                       !- Heating Setpoint Temperature Schedule Name
  ;                                       !- Cooling Setpoint Temperature Schedule Name

OS:ThermalZone,
  {a6461607-e3f7-4462-9532-c873fa85dc90}, !- Handle
  GroundFloor_Core_TZ,                    !- Name
  1,                                      !- Multiplier
  ,                                       !- Ceiling Height {m}
  ,                                       !- Volume {m3}
  ,                                       !- Floor Area {m2}
  ,                                       !- Zone Inside Convection Algorithm
  ,                                       !- Zone Outside Convection Algorithm
  ,                                       !- Zone Conditioning Equipment List Name
  {5e987773-fa12-4c37-aebc-a79aa7a362a8}, !- Zone Air Inlet Port List
  {d64b1c54-4ea3-4f50-a433-26d2d96aa1c8}, !- Zone Air Exhaust Port List
  {d5fbfa92-178f-46f5-872f-16746f2e9fb6}, !- Zone Air Node Name
  {d3f586bd-44d1-416d-b580-811ef28ba2a6}, !- Zone Return Air Port List
  ,                                       !- Primary Daylighting Control Name
  ,                                       !- Fraction of Zone Controlled by Primary Daylighting Control
  ,                                       !- Secondary Daylighting Control Name
  ,                                       !- Fraction of Zone Controlled by Secondary Daylighting Control
  ,                                       !- Illuminance Map Name
  {7a649a2b-e0be-4c7e-bf31-53b1a1f2df03}, !- Group Rendering Name
  {f3846415-5fc2-4bfb-96a0-b3c7957dc720}, !- Thermostat Name
  No,                                     !- Use Ideal Air Loads
  {4c056fbc-0d27-4025-ae69-f690072d58a1}; !- Humidistat Name

OS:Node,
  {272fe8bf-b9c1-4555-ba41-e90d05281785}, !- Handle