!-Generator IDFEditor 1.51
!-Option OriginalOrderTop UseSpecialFormat

!-NOTE: All comments with '!-' are ignored by the IDFEditor and are generated automatically.
!-      Use '!' comments if they need to be retained when using the IDFEditor.

Version,9.5;
Timestep,4;

LifeCycleCost:Parameters,
    Life Cycle Cost Parameters,  !- Name
    EndOfYear,               !- Discounting Convention
    ConstantDollar,          !- Inflation Approach
    0.04,                    !- Real Discount Rate
    ,                        !- Nominal Discount Rate
    ,                        !- Inflation
    ,                        !- Base Date Month
    2011,                    !- Base Date Year
    ,                        !- Service Date Month
    2011,                    !- Service Date Year
    30,                      !- Length of Study Period in Years
    ,                        !- Tax rate
    None;                    !- Depreciation Method

Building,
    Office,                  !- Name
    0,                       !- North Axis {deg}
    City,                    !- Terrain
    0.04,                    !- Loads Convergence Tolerance Value {W}
    0.2,                     !- Temperature Convergence Tolerance Value {deltaC}
    FullInteriorAndExterior, !- Solar Distribution
    25,                      !- Maximum Number of Warmup Days
    6;                       !- Minimum Number of Warmup Days

Zone,
    Basement_TZ,             !- Name
    -0,                      !- Direction of Relative North {deg}
    0, 30, 0,                           !- X,Y,Z  {m}
    ,                        !- Type
    1,                       !- Multiplier
    ,                        !- Ceiling Height {m}
    ,                        !- Volume {m3}
    ,                        !- Floor Area {m2}
    ,                        !- Zone Inside Convection Algorithm
    ,                        !- Zone Outside Convection Algorithm
    Yes;                     !- Part of Total Floor Area

BuildingSurface:Detailed,
    Basement_CoreRoof,       !- Name
    Ceiling,                 !- Surface Type
    _ConcreteAndCarpet,      !- Construction Name
    Basement_TZ,             !- Zone Name
    Surface,                 !- Outside Boundary Condition
    GroundFloor_Core_Floor,  !- Outside Boundary Condition Object
    NoSun,                   !- Sun Exposure
    NoWind,                  !- Wind Exposure
    0,                       !- View Factor to Ground
    ,                        !- Number of Vertices
    16, -20, 0,                         !- X,Y,Z  1 {m}
    16, -18, 0,                         !- X,Y,Z  2 {m}
    20, -18, 0,                         !- X,Y,Z  3 {m}
    20, -10, 0,                         !- X,Y,Z  4 {m}
    10, -10, 0,                         !- X,Y,Z  5 {m}
    10, -20, 0;                         !- X,Y,Z  6 {m}

BuildingSurface:Detailed,
    Basement_Floor,          !- Name
    Floor,                   !- Surface Type
    _Concrete_300mm,         !- Construction Name
    Basement_TZ,             !- Zone Name
    Adiabatic,               !- Outside Boundary Condition
    ,                        !- Outside Boundary Condition Object
    NoSun,                   !- Sun Exposure
    NoWind,                  !- Wind Exposure
    0,                       !- View Factor to Ground
    ,                        !- Number of Vertices
    30, 0, -3,                          !- X,Y,Z  1 {m}
    30, -30, -3,                        !- X,Y,Z  2 {m}
    0, -30, -3,                         !- X,Y,Z  3 {m}
    0, 0, -3;                           !- X,Y,Z  4 {m}

BuildingSurface:Detailed,
    Basement_Roof_DC,        !- Name
    Ceiling,                 !- Surface Type
    _ConcreteAndCarpet,      !- Construction Name
    Basement_TZ,             !- Zone Name
    Surface,                 !- Outside Boundary Condition
    GroundFloor_DC_Floor,    !- Outside Boundary Condition Object
    NoSun,                   !- Sun Exposure
    NoWind,                  !- Wind Exposure
    0,                       !- View Factor to Ground
    ,                        !- Number of Vertices
    20, -20, 0,                         !- X,Y,Z  1 {m}
    20, -18, 0,                         !- X,Y,Z  2 {m}
    16, -18, 0,                         !- X,Y,Z  3 {m}
    16, -20, 0;                         !- X,Y,Z  4 {m}

BuildingSurface:Detailed,
    Basement_Roof_E,         !- Name
    Ceiling,                 !- Surface Type
    _ConcreteAndCarpet,      !- Construction Name
    Basement_TZ,             !- Zone Name
    Surface,                 !- Outside Boundary Condition
    GroundFloor_E_Floor,     !- Outside Boundary Condition Object
    NoSun,                   !- Sun Exposure
    NoWind,                  !- Wind Exposure
    0,                       !- View Factor to Ground
    ,                        !- Number of Vertices
    30, -30, 0,                         !- X,Y,Z  1 {m}
    30, 0, 0,                           !- X,Y,Z  2 {m}
    20, -10, 0,                         !- X,Y,Z  3 {m}
    20, -20, 0;                         !- X,Y,Z  4 {m}

BuildingSurface:Detailed,
    Basement_Roof_N,         !- Name
    Ceiling,                 !- Surface Type
    _ConcreteAndCarpet,      !- Construction Name
    Basement_TZ,             !- Zone Name
    Surface,                 !- Outside Boundary Condition
    GroundFloor_N_Floor,     !- Outside Boundary Condition Object
    NoSun,                   !- Sun Exposure
    NoWind,                  !- Wind Exposure
    0,                       !- View Factor to Ground
    ,                        !- Number of Vertices
    20, -10, 0,                         !- X,Y,Z  1 {m}
    30, 0, 0,                           !- X,Y,Z  2 {m}
    0, 0, 0,                            !- X,Y,Z  3 {m}
    10, -10, 0;                         !- X,Y,Z  4 {m}

BuildingSurface:Detailed,
    Basement_Roof_S,         !- Name
    Ceiling,                 !- Surface Type
    _ConcreteAndCarpet,      !- Construction Name
    Basement_TZ,             !- Zone Name
    Surface,                 !- Outside Boundary Condition
    GroundFloor_S_Floor,     !- Outside Boundary Condition Object
    NoSun,                   !- Sun Exposure
    NoWind,                  !- Wind Exposure
    0,                       !- View Factor to Ground
    ,                        !- Number of Vertices
    30, -30, 0,                         !- X,Y,Z  1 {m}
    20, -20, 0,                         !- X,Y,Z  2 {m}
    10, -20, 0,                         !- X,Y,Z  3 {m}
    0, -30, 0;                          !- X,Y,Z  4 {m}

BuildingSurface:Detailed,
    Basement_Roof_W,         !- Name
    Ceiling,                 !- Surface Type
    _ConcreteAndCarpet,      !- Construction Name
    Basement_TZ,             !- Zone Name
    Surface,                 !- Outside Boundary Condition
    GroundFloor_W_Floor,     !- Outside Boundary Condition Object
    NoSun,                   !- Sun Exposure
    NoWind,                  !- Wind Exposure
    0,                       !- View Factor to Ground
    ,                        !- Number of Vertices
    0, -30, 0,                          !- X,Y,Z  1 {m}
    10, -20, 0,                         !- X,Y,Z  2 {m}
    10, -10, 0,                         !- X,Y,Z  3 {m}
    0, 0, 0;                            !- X,Y,Z  4 {m}

BuildingSurface:Detailed,
    Basement_Wall_E,         !- Name
    Wall,                    !- Surface Type
    _Concrete_300mm,         !- Construction Name
    Basement_TZ,             !- Zone Name
    Adiabatic,               !- Outside Boundary Condition
    ,                        !- Outside Boundary Condition Object
    NoSun,                   !- Sun Exposure
    NoWind,                  !- Wind Exposure
    0,                       !- View Factor to Ground
    ,                        !- Number of Vertices
    30, -30, 0,                         !- X,Y,Z  1 {m}
    30, -30, -3,                        !- X,Y,Z  2 {m}
    30, 0, -3,                          !- X,Y,Z  3 {m}
    30, 0, 0;                           !- X,Y,Z  4 {m}

BuildingSurface:Detailed,
    Basement_Wall_N,         !- Name
    Wall,                    !- Surface Type
    _Concrete_300mm,         !- Construction Name
    Basement_TZ,             !- Zone Name
    Adiabatic,               !- Outside Boundary Condition
    ,                        !- Outside Boundary Condition Object
    NoSun,                   !- Sun Exposure
    NoWind,                  !- Wind Exposure
    0,                       !- View Factor to Ground
    ,                        !- Number of Vertices
    30, 0, 0,                           !- X,Y,Z  1 {m}
    30, 0, -3,                          !- X,Y,Z  2 {m}
    0, 0, -3,                           !- X,Y,Z  3 {m}
    0, 0, 0;                            !- X,Y,Z  4 {m}

BuildingSurface:Detailed,
    Basement_Wall_S,         !- Name
    Wall,                    !- Surface Type
    _Concrete_300mm,         !- Construction Name
    Basement_TZ,             !- Zone Name
    Adiabatic,               !- Outside Boundary Condition
    ,                        !- Outside Boundary Condition Object
    NoSun,                   !- Sun Exposure
    NoWind,                  !- Wind Exposure
    0,                       !- View Factor to Ground
    ,                        !- Number of Vertices
    0, -30, 0,                          !- X,Y,Z  1 {m}
    0, -30, -3,                         !- X,Y,Z  2 {m}
    30, -30, -3,                        !- X,Y,Z  3 {m}
    30, -30, 0;                         !- X,Y,Z  4 {m}

BuildingSurface:Detailed,
    Basement_Wall_W,         !- Name
    Wall,                    !- Surface Type
    _Concrete_300mm,         !- Construction Name
    Basement_TZ,             !- Zone Name
    Adiabatic,               !- Outside Boundary Condition
    ,                        !- Outside Boundary Condition Object
    NoSun,                   !- Sun Exposure
    NoWind,                  !- Wind Exposure
    0,                       !- View Factor to Ground
    ,                        !- Number of Vertices
    0, 0, 0,                            !- X,Y,Z  1 {m}
    0, 0, -3,                           !- X,Y,Z  2 {m}
    0, -30, -3,                         !- X,Y,Z  3 {m}
    0, -30, 0;                          !- X,Y,Z  4 {m}

Zone,
    GroundFloor_Core_TZ,     !- Name
    -0,                      !- Direction of Relative North {deg}
    10, 20, 0,                          !- X,Y,Z  {m}
    ,                        !- Type
    1,                       !- Multiplier
    ,                        !- Ceiling Height {m}
    ,                        !- Volume {m3}
    ,                        !- Floor Area {m2}
    ,                        !- Zone Inside Convection Algorithm
    ,                        !- Zone Outside Convection Algorithm
    Yes;                     !- Part of Total Floor Area

BuildingSurface:Detailed,
    GroundFloor_Core_Ceiling,!- Name
    Ceiling,                 !- Surface Type
    _DropCeiling,            !- Construction Name
    GroundFloor_Core_TZ,     !- Zone Name
    Surface,                 !- Outside Boundary Condition
    GroundFloor_Plenum_Core, !- Outside Boundary Condition Object
    NoSun,                   !- Sun Exposure
    NoWind,                  !- Wind Exposure
    ,                        !- View Factor to Ground
    ,                        !- Number of Vertices
    6, -10, 3.15,                       !- X,Y,Z  1 {m}
    6, -8, 3.15,                        !- X,Y,Z  2 {m}
    10, -8, 3.15,                       !- X,Y,Z  3 {m}
    10, 0, 3.15,                        !- X,Y,Z  4 {m}
    0, 0, 3.15,                         !- X,Y,Z  5 {m}
    0, -10, 3.15;                       !- X,Y,Z  6 {m}

BuildingSurface:Detailed,
    GroundFloor_Core_Floor,  !- Name
    Floor,                   !- Surface Type
    _ConcreteAndCarpet Reversed,  !- Construction Name
    GroundFloor_Core_TZ,     !- Zone Name
    Surface,                 !- Outside Boundary Condition
    Basement_CoreRoof,       !- Outside Boundary Condition Object
    NoSun,                   !- Sun Exposure
    NoWind,                  !- Wind Exposure
    ,                        !- View Factor to Ground
    ,                        !- Number of Vertices
    10, 0, 0,                           !- X,Y,Z  1 {m}
    10, -8, 0,                          !- X,Y,Z  2 {m}
    6, -8, 0,                           !- X,Y,Z  3 {m}
    6, -10, 0,                          !- X,Y,Z  4 {m}
    0, -10, 0,                          !- X,Y,Z  5 {m}
    0, 0, 0;                            !- X,Y,Z  6 {m}

BuildingSurface:Detailed,
    GroundFloor_Core_IntWall_E_1,  !- Name
    Wall,                    !- Surface Type
    _Gypsum13_Concrete200mm_Gypsum13,  !- Construction Name
    GroundFloor_Core_TZ,     !- Zone Name
    Surface,                 !- Outside Boundary Condition
    GroundFloor_E_IntWall_1, !- Outside Boundary Condition Object
    NoSun,                   !- Sun Exposure
    NoWind,                  !- Wind Exposure
    ,                        !- View Factor to Ground
    ,                        !- Number of Vertices
    10, -8, 3.15,                       !- X,Y,Z  1 {m}
    10, -8, 0,                          !- X,Y,Z  2 {m}
    10, 0, 0,                           !- X,Y,Z  3 {m}
    10, 0, 3.15;                        !- X,Y,Z  4 {m}

BuildingSurface:Detailed,
    GroundFloor_Core_IntWall_E_2,  !- Name
    Wall,                    !- Surface Type
    _Gypsum13_Concrete200mm_Gypsum13,  !- Construction Name
    GroundFloor_Core_TZ,     !- Zone Name
    Surface,                 !- Outside Boundary Condition
    GroundFloor_DC_IntWall_W,!- Outside Boundary Condition Object
    NoSun,                   !- Sun Exposure
    NoWind,                  !- Wind Exposure
    ,                        !- View Factor to Ground
    ,                        !- Number of Vertices
    6, -10, 3.15,                       !- X,Y,Z  1 {m}
    6, -10, 0,                          !- X,Y,Z  2 {m}
    6, -8, 0,                           !- X,Y,Z  3 {m}
    6, -8, 3.15;                        !- X,Y,Z  4 {m}

BuildingSurface:Detailed,
    GroundFloor_Core_IntWall_N,  !- Name
    Wall,                    !- Surface Type
    _Gypsum13_Concrete200mm_Gypsum13,  !- Construction Name
    GroundFloor_Core_TZ,     !- Zone Name
    Surface,                 !- Outside Boundary Condition
    GroundFloor_N_IntWall,   !- Outside Boundary Condition Object
    NoSun,                   !- Sun Exposure
    NoWind,                  !- Wind Exposure
    ,                        !- View Factor to Ground
    ,                        !- Number of Vertices
    10, 0, 3.15,                        !- X,Y,Z  1 {m}
    10, 0, 0,                           !- X,Y,Z  2 {m}
    0, 0, 0,                            !- X,Y,Z  3 {m}
    0, 0, 3.15;                         !- X,Y,Z  4 {m}

BuildingSurface:Detailed,
    GroundFloor_Core_IntWall_S 3,  !- Name
    Wall,                    !- Surface Type
    _Gypsum13_Concrete200mm_Gypsum13,  !- Construction Name
    GroundFloor_Core_TZ,     !- Zone Name
    Surface,                 !- Outside Boundary Condition
    GroundFloor_DC_IntWall_N,!- Outside Boundary Condition Object
    NoSun,                   !- Sun Exposure
    NoWind,                  !- Wind Exposure
    ,                        !- View Factor to Ground
    ,                        !- Number of Vertices
    6, -8, 3.15,                        !- X,Y,Z  1 {m}
    6, -8, 0,                           !- X,Y,Z  2 {m}
    10, -8, 0,                          !- X,Y,Z  3 {m}
    10, -8, 3.15;                       !- X,Y,Z  4 {m}

BuildingSurface:Detailed,
    GroundFloor_Core_IntWall_S 4,  !- Name
    Wall,                    !- Surface Type
    _Gypsum13_Concrete200mm_Gypsum13,  !- Construction Name
    GroundFloor_Core_TZ,     !- Zone Name
    Surface,                 !- Outside Boundary Condition
    GroundFloor_S_IntWall_1, !- Outside Boundary Condition Object
    NoSun,                   !- Sun Exposure
    NoWind,                  !- Wind Exposure
    ,                        !- View Factor to Ground
    ,                        !- Number of Vertices
    0, -10, 3.15,                       !- X,Y,Z  1 {m}
    0, -10, 0,                          !- X,Y,Z  2 {m}
    6, -10, 0,                          !- X,Y,Z  3 {m}
    6, -10, 3.15;                       !- X,Y,Z  4 {m}

BuildingSurface:Detailed,
    GroundFloor_Core_IntWall_W 1,  !- Name
    Wall,                    !- Surface Type
    _Gypsum13_Concrete200mm_Gypsum13,  !- Construction Name
    GroundFloor_Core_TZ,     !- Zone Name
    Surface,                 !- Outside Boundary Condition
    GroundFloor_W_IntWall,   !- Outside Boundary Condition Object
    NoSun,                   !- Sun Exposure
    NoWind,                  !- Wind Exposure
    ,                        !- View Factor to Ground
    ,                        !- Number of Vertices
    0, 0, 3.15,                         !- X,Y,Z  1 {m}
    0, 0, 0,                            !- X,Y,Z  2 {m}
    0, -10, 0,                          !- X,Y,Z  3 {m}
    0, -10, 3.15;                       !- X,Y,Z  4 {m}

ZoneControl:Thermostat,
    GroundFloor_Core_TZ Thermostat,  !- Name
    GroundFloor_Core_TZ,     !- Zone or ZoneList Name
    GroundFloor_Core_TZ Thermostat Schedule,  !- Control Type Schedule Name
    ThermostatSetpoint:DualSetpoint,  !- Control 1 Object Type
    Core_bottom DualSPSched, !- Control 1 Name
    ,                        !- Control 2 Object Type
    ,                        !- Control 2 Name
    ,                        !- Control 3 Object Type
    ,                        !- Control 3 Name
    ,                        !- Control 4 Object Type
    ,                        !- Control 4 Name
    0;                       !- Temperature Difference Between Cutout And Setpoint {deltaC}

Schedule:Compact,
    GroundFloor_Core_TZ Thermostat Schedule,  !- Name
    GroundFloor_Core_TZ Thermostat Schedule Type Limits,  !- Schedule Type Limits Name
    Through: 12/31,          !- Field 1
    For: AllDays,            !- Field 2
    Until: 24:00, 4;         !- Field 4

ScheduleTypeLimits,
    GroundFloor_Core_TZ Thermostat Schedule Type Limits,  !- Name
    0,                       !- Lower Limit Value
    4,                       !- Upper Limit Value
    DISCRETE;                !- Numeric Type

ThermostatSetpoint:DualSetpoint,
    Core_bottom DualSPSched, !- Name
    _Heating_21,             !- Heating Setpoint Temperature Schedule Name
    _Cooling_26;             !- Cooling Setpoint Temperature Schedule Name

ScheduleTypeLimits,
    Temperature 3,           !- Name
    ,                        !- Lower Limit Value
    ,                        !- Upper Limit Value
    Continuous,              !- Numeric Type
    temperature;             !- Unit Type

Schedule:Day:Interval,
    Large Office HtgSetp Rule 1 Day Schedule 12,  !- Name
    Temperature 3,           !- Schedule Type Limits Name
    No,                      !- Interpolate to Timestep
    24:00,                   !- Time 1 {hh:mm}
    17;                      !- Value Until Time 1

Schedule:Day:Interval,
    Large Office HtgSetp Default Schedule 5,  !- Name
    Temperature 3,           !- Schedule Type Limits Name
    No,                      !- Interpolate to Timestep
    06:00,                   !- Time 1 {hh:mm}
    17,                      !- Value Until Time 1
    21:00,                   !- Time 2 {hh:mm}
    21,                      !- Value Until Time 2
    24:00,                   !- Time 3 {hh:mm}
    17;                      !- Value Until Time 3

Schedule:Day:Interval,
    Large Office HtgSetp Rule 2 Day Schedule 5,  !- Name
    Temperature 3,           !- Schedule Type Limits Name
    No,                      !- Interpolate to Timestep
    08:00,                   !- Time 1 {hh:mm}
    17,                      !- Value Until Time 1
    18:00,                   !- Time 2 {hh:mm}
    21,                      !- Value Until Time 2
    24:00,                   !- Time 3 {hh:mm}
    17;                      !- Value Until Time 3

Schedule:Week:Daily,
    _Heating_21 Week Rule - Jan1-Dec31,  !- Name
    Large Office HtgSetp Rule 1 Day Schedule 12,  !- Sunday Schedule:Day Name
    Large Office HtgSetp Default Schedule 5,  !- Monday Schedule:Day Name
    Large Office HtgSetp Default Schedule 5,  !- Tuesday Schedule:Day Name
    Large Office HtgSetp Default Schedule 5,  !- Wednesday Schedule:Day Name
    Large Office HtgSetp Default Schedule 5,  !- Thursday Schedule:Day Name
    Large Office HtgSetp Default Schedule 5,  !- Friday Schedule:Day Name
    Large Office HtgSetp Rule 2 Day Schedule 5,  !- Saturday Schedule:Day Name
    Large Office HtgSetp Rule 1 Day Schedule 11,  !- Holiday Schedule:Day Name
    Large Office HtgSetp Summer Design Day 5,  !- SummerDesignDay Schedule:Day Name
    Large Office HtgSetp Winter Design Day 5,  !- WinterDesignDay Schedule:Day Name
    Large Office HtgSetp Default Schedule 5,  !- CustomDay1 Schedule:Day Name
    Large Office HtgSetp Default Schedule 5;  !- CustomDay2 Schedule:Day Name

Schedule:Year,
    _Heating_21,             !- Name
    Temperature 3,           !- Schedule Type Limits Name
    _Heating_21 Week Rule - Jan1-Dec31,  !- Schedule:Week Name 1
    1,                       !- Start Month 1
    1,                       !- Start Day 1
    12,                      !- End Month 1
    31;                      !- End Day 1

Schedule:Day:Interval,
    Large Office HtgSetp Summer Design Day 5,  !- Name
    Temperature 3,           !- Schedule Type Limits Name
    No,                      !- Interpolate to Timestep
    24:00,                   !- Time 1 {hh:mm}
    17;                      !- Value Until Time 1

Schedule:Day:Interval,
    Large Office HtgSetp Winter Design Day 5,  !- Name
    Temperature 3,           !- Schedule Type Limits Name
    No,                      !- Interpolate to Timestep
    24:00,                   !- Time 1 {hh:mm}
    21;                      !- Value Until Time 1

Schedule:Day:Interval,
    Large Office HtgSetp Rule 1 Day Schedule 11,  !- Name
    Temperature 3,           !- Schedule Type Limits Name
    No,                      !- Interpolate to Timestep
    24:00,                   !- Time 1 {hh:mm}
    17;                      !- Value Until Time 1

ScheduleTypeLimits,
    Temperature 5,           !- Name
    ,                        !- Lower Limit Value
    ,                        !- Upper Limit Value
    Continuous,              !- Numeric Type
    temperature;             !- Unit Type

Schedule:Day:Interval,
    Large Office ClgSetp Rule 1 Day Schedule 12,  !- Name
    Temperature 5,           !- Schedule Type Limits Name
    No,                      !- Interpolate to Timestep
    24:00,                   !- Time 1 {hh:mm}
    29;                      !- Value Until Time 1

Schedule:Day:Interval,
    Large Office ClgSetp Default Schedule 5,  !- Name
    Temperature 5,           !- Schedule Type Limits Name
    No,                      !- Interpolate to Timestep
    06:00,                   !- Time 1 {hh:mm}
    29,                      !- Value Until Time 1
    21:00,                   !- Time 2 {hh:mm}
    26,                      !- Value Until Time 2
    24:00,                   !- Time 3 {hh:mm}
    29;                      !- Value Until Time 3

Schedule:Day:Interval,
    Large Office ClgSetp Rule 2 Day Schedule 5,  !- Name
    Temperature 5,           !- Schedule Type Limits Name
    No,                      !- Interpolate to Timestep
    08:00,                   !- Time 1 {hh:mm}
    29,                      !- Value Until Time 1
    18:00,                   !- Time 2 {hh:mm}
    26,                      !- Value Until Time 2
    24:00,                   !- Time 3 {hh:mm}
    29;                      !- Value Until Time 3

Schedule:Week:Daily,
    _Cooling_26 Week Rule - Jan1-Dec31,  !- Name
    Large Office ClgSetp Rule 1 Day Schedule 12,  !- Sunday Schedule:Day Name
    Large Office ClgSetp Default Schedule 5,  !- Monday Schedule:Day Name
    Large Office ClgSetp Default Schedule 5,  !- Tuesday Schedule:Day Name
    Large Office ClgSetp Default Schedule 5,  !- Wednesday Schedule:Day Name
    Large Office ClgSetp Default Schedule 5,  !- Thursday Schedule:Day Name
    Large Office ClgSetp Default Schedule 5,  !- Friday Schedule:Day Name
    Large Office ClgSetp Rule 2 Day Schedule 5,  !- Saturday Schedule:Day Name
    Large Office ClgSetp Rule 1 Day Schedule 11,  !- Holiday Schedule:Day Name
    Large Office ClgSetp Summer Design Day 5,  !- SummerDesignDay Schedule:Day Name
    Large Office ClgSetp Winter Design Day 5,  !- WinterDesignDay Schedule:Day Name
    Large Office ClgSetp Default Schedule 5,  !- CustomDay1 Schedule:Day Name
    Large Office ClgSetp Default Schedule 5;  !- CustomDay2 Schedule:Day Name

Schedule:Year,
    _Cooling_26,             !- Name
    Temperature 5,           !- Schedule Type Limits Name
    _Cooling_26 Week Rule - Jan1-Dec31,  !- Schedule:Week Name 1
    1,                       !- Start Month 1
    1,                       !- Start Day 1
    12,                      !- End Month 1
    31;                      !- End Day 1

Schedule:Day:Interval,
    Large Office ClgSetp Summer Design Day 5,  !- Name
    Temperature 5,           !- Schedule Type Limits Name
    No,                      !- Interpolate to Timestep
    06:00,                   !- Time 1 {hh:mm}
    29,                      !- Value Until Time 1
    22:00,                   !- Time 2 {hh:mm}
    26,                      !- Value Until Time 2
    24:00,                   !- Time 3 {hh:mm}
    29;                      !- Value Until Time 3

Schedule:Day:Interval,
    Large Office ClgSetp Winter Design Day 5,  !- Name
    Temperature 5,           !- Schedule Type Limits Name
    No,                      !- Interpolate to Timestep
    24:00,                   !- Time 1 {hh:mm}
    25;                      !- Value Until Time 1

Schedule:Day:Interval,
    Large Office ClgSetp Rule 1 Day Schedule 11,  !- Name
    Temperature 5,           !- Schedule Type Limits Name
    No,                      !- Interpolate to Timestep
    24:00,                   !- Time 1 {hh:mm}
    29;                      !- Value Until Time 1

ZoneHVAC:EquipmentConnections,
    GroundFloor_Core_TZ,     !- Zone Name
    GroundFloor_Core_TZ Equipment List,  !- Zone Conditioning Equipment List Name
    GroundFloor_Core_TZ Inlet Node List,  !- Zone Air Inlet Node or NodeList Name
    GroundFloor_Core_TZ Exhaust Node List,  !- Zone Air Exhaust Node or NodeList Name
    GroundFloor_Core_TZ Zone Air Node;  !- Zone Air Node Name

NodeList,
    GroundFloor_Core_TZ Inlet Node List,  !- Name
    GroundFloor_Core_TZ VRF Terminal Unit Outlet Air Node;  !- Node 1 Name

NodeList,
    GroundFloor_Core_TZ Exhaust Node List,  !- Name
    GroundFloor_Core_TZ VRF Terminal Unit Inlet Air Node;  !- Node 1 Name

ZoneHVAC:TerminalUnit:VariableRefrigerantFlow,
    GroundFloor_Core_TZ VRF Terminal Unit,  !- Zone Terminal Unit Name
    Always On Discrete,      !- Terminal Unit Availability Schedule
    GroundFloor_Core_TZ VRF Terminal Unit Inlet Air Node,  !- Terminal Unit Air Inlet Node Name
    GroundFloor_Core_TZ VRF Terminal Unit Outlet Air Node,  !- Terminal Unit Air Outlet Node Name
    Autosize,                !- Cooling Supply Air Flow Rate {m3/s}
    Autosize,                !- No Cooling Supply Air Flow Rate {m3/s}
    Autosize,                !- Heating Supply Air Flow Rate {m3/s}
    Autosize,                !- No Heating Supply Air Flow Rate {m3/s}
    Autosize,                !- Cooling Outdoor Air Flow Rate {m3/s}
    Autosize,                !- Heating Outdoor Air Flow Rate {m3/s}
    Autosize,                !- No Load Outdoor Air Flow Rate {m3/s}
    GroundFloor_Core_TZ VRF Terminal Unit Occ Sch,  !- Supply Air Fan Operating Mode Schedule Name
    DrawThrough,             !- Supply Air Fan Placement
    Fan:OnOff,               !- Supply Air Fan Object Type
    GroundFloor_Core_TZ VRF Unit Cycling Fan,  !- Supply Air Fan Object Name
    OutdoorAir:Mixer,        !- Outside Air Mixer Object Type
    GroundFloor_Core_TZ VRF Terminal Unit OA Mixer,  !- Outside Air Mixer Object Name
    Coil:Cooling:DX:VariableRefrigerantFlow,  !- Cooling Coil Object Type
    Zone HVAC Terminal Unit Variable Refrigerant Flow 1 Cooling Coil,  !- Cooling Coil Object Name
    Coil:Heating:DX:VariableRefrigerantFlow,  !- Heating Coil Object Type
    Zone HVAC Terminal Unit Variable Refrigerant Flow 1 Heating Coil,  !- Heating Coil Object Name
    30,                      !- Zone Terminal Unit On Parasitic Electric Energy Use {W}
    20,                      !- Zone Terminal Unit Off Parasitic Electric Energy Use {W}
    1,                       !- Rated Heating Capacity Sizing Ratio {W/W}
    ,                        !- Availability Manager List Name
    ,                        !- Design Specification ZoneHVAC Sizing Object Name
    ,                        !- Supplemental Heating Coil Object Type
    ,                        !- Supplemental Heating Coil Name
    Autosize,                !- Maximum Supply Air Temperature from Supplemental Heater {C}
    21;                      !- Maximum Outdoor Dry-Bulb Temperature for Supplemental Heater Operation {C}

Schedule:Constant,Always On Discrete,OnOff 1,1;

ScheduleTypeLimits,
    Any Number;              !- Name

Schedule:Day:Interval,
    GroundFloor_Core_TZ VRF Terminal Unit Occ Sch Sunday,  !- Name
    Any Number,              !- Schedule Type Limits Name
    No,                      !- Interpolate to Timestep
    24:00,                   !- Time 1 {hh:mm}
    0;                       !- Value Until Time 1

Schedule:Day:Interval,
    GroundFloor_Core_TZ VRF Terminal Unit Occ Sch Default,  !- Name
    Any Number,              !- Schedule Type Limits Name
    No,                      !- Interpolate to Timestep
    07:00,                   !- Time 1 {hh:mm}